@<TRIPOS>MOLECULE
*****
 38 40 0 0 0
SMALL
GASTEIGER

@<TRIPOS>ATOM
      1 C           0.6903    0.0163    0.0029 C.3     1  UNL1       -0.0512
      2 C           2.2009    0.0228    0.1104 C.3     1  UNL1        0.0281
      3 CA          3.0036   -1.1430   -0.4755 C.3     1  UNL1        0.0781
      4 N           4.4124   -0.6839   -0.3654 N.am    1  UNL1       -0.2764
      5 C           4.6146    0.7789   -0.2840 C.3     1  UNL1        0.1000
      6 S           2.9887    1.5347   -0.5992 S.3     1  UNL1       -0.1306
      7 CA          5.6665    0.6692   -1.4012 C.3     1  UNL1        0.1277
      8 C           5.3460   -0.8652   -1.3455 C.2     1  UNL1        0.2400
      9 O           5.8466   -1.8692   -1.8016 O.2     1  UNL1       -0.2734
     10 N           7.0745    0.9840   -0.9458 N.am    1  UNL1       -0.3015
     11 C           7.3815    2.1752   -0.3241 C.2     1  UNL1        0.2180
     12 O           6.5867    3.1076   -0.2312 O.2     1  UNL1       -0.2754
     13 C           8.7881    2.2554    0.2419 C.3     1  UNL1        0.0491
     14 C           8.8981    1.8642    1.6980 C.ar    1  UNL1       -0.0384
     15 C           9.8151    0.8794    2.0980 C.ar    1  UNL1       -0.0547
     16 C           9.9834    0.5617    3.4475 C.ar    1  UNL1       -0.0199
     17 C           9.2361    1.2336    4.4087 C.ar    1  UNL1        0.1169
     18 C           8.3156    2.2052    4.0362 C.ar    1  UNL1       -0.0199
     19 C           8.1478    2.5230    2.6873 C.ar    1  UNL1       -0.0547
     20 O           9.3871    0.9686    5.7382 O.3     1  UNL1       -0.5068
     21 C           2.4404   -1.5331   -1.8728 C.2     1  UNL1        0.0633
     22 O           2.9318   -0.9319   -2.8689 O.co2   1  UNL1       -0.5479
     23 OXT         1.5219   -2.4067   -1.8349 O.co2   1  UNL1       -0.5479
     24 H           2.4356    0.0753    1.1824 H       1  UNL1        0.0432
     25 H           0.3297    0.0644   -1.0277 H       1  UNL1        0.0241
     26 H           0.2694    0.8704    0.5474 H       1  UNL1        0.0241
     27 H           0.2879   -0.8889    0.4707 H       1  UNL1        0.0241
     28 HA          2.9237   -2.0217    0.1752 H       1  UNL1        0.0573
     29 H           5.0086    1.0455    0.7022 H       1  UNL1        0.0640
     30 HA          5.4352    1.1429   -2.3606 H       1  UNL1        0.0622
     31 H           7.6941    0.1932   -0.8023 H       1  UNL1        0.1495
     32 H           9.1421    3.2883    0.1263 H       1  UNL1        0.0407
     33 H           9.4537    1.6401   -0.3753 H       1  UNL1        0.0407
     34 H          10.4131    0.3524    1.3582 H       1  UNL1        0.0622
     35 H          10.6981   -0.2063    3.7255 H       1  UNL1        0.0654
     36 H           7.7341    2.7215    4.7952 H       1  UNL1        0.0654
     37 H           7.4354    3.2993    2.4108 H       1  UNL1        0.0622
     38 H          10.0657    0.2814    5.8378 H       1  UNL1        0.2921
@<TRIPOS>UNITY_ATOM_ATTR
23 1
charge -1
@<TRIPOS>BOND
     1     1     2    1
     2     2     3    1
     3     3     4    1
     4     4     5    1
     5     5     6    1
     6     2     6    1
     7     5     7    1
     8     7     8    1
     9     4     8   am
    10     8     9    2
    11     7    10    1
    12    10    11   am
    13    11    12    2
    14    11    13    1
    15    13    14    1
    16    14    15   ar
    17    15    16   ar
    18    16    17   ar
    19    17    18   ar
    20    18    19   ar
    21    14    19   ar
    22    17    20    1
    23     3    21    1
    24    21    22   ar
    25    21    23   ar
    26     2    24    1
    27     1    25    1
    28     1    26    1
    29     1    27    1
    30     3    28    1
    31     5    29    1
    32     7    30    1
    33    10    31    1
    34    13    32    1
    35    13    33    1
    36    15    34    1
    37    16    35    1
    38    18    36    1
    39    19    37    1
    40    20    38    1
